---- qbsp / ericw-tools 2.0.0-alpha10-54-g07dbcb3b ----

--- Options Summary ---
    "nocolor" was set to "1" (from command line)

Input file: C:\Users\jettm\Documents\Columbia Classes\GAME 336 (Game Design II)\Quake Starter Kit\tools\ironwail\id1\maps\EldritchTrenches-compile.map
Output file: C:\Users\jettm\Documents\Columbia Classes\GAME 336 (Game Design II)\Quake Starter Kit\tools\ironwail\id1\maps\EldritchTrenches.bsp

INFO: using built-in palette.
WARNING: EldritchTrenches-compile.map[line 4]: Unrecognised string escape - \.
WARNING: EldritchTrenches-compile.map[line 4]: Unrecognised string escape - \.
WARNING: EldritchTrenches-compile.map[line 4]: Unrecognised string escape - \.
WARNING: EldritchTrenches-compile.map[line 4]: Unrecognised string escape - \e
WARNING: EldritchTrenches-compile.map[line 4]: Unrecognised string escape - \q
WARNING: EldritchTrenches-compile.map[line 4]: Unrecognised string escape - \p
WARNING: EldritchTrenches-compile.map[line 4]: Unrecognised string escape - \p
WARNING: EldritchTrenches-compile.map[line 4]: Unrecognised string escape - \.
WARNING: EldritchTrenches-compile.map[line 4]: Unrecognised string escape - \.
WARNING: EldritchTrenches-compile.map[line 4]: Unrecognised string escape - \.
WARNING: EldritchTrenches-compile.map[line 4]: Unrecognised string escape - \e
WARNING: EldritchTrenches-compile.map[line 4]: Unrecognised string escape - \q
WARNING: EldritchTrenches-compile.map[line 4]: Unrecognised string escape - \Q
WARNING: EldritchTrenches-compile.map[line 4]: Unrecognised string escape - \i
WARNING: EldritchTrenches-compile.map[line 4]: Unrecognised string escape - \m
WARNING: EldritchTrenches-compile.map[line 4]: Unrecognised string escape - \i
WARNING: EldritchTrenches-compile.map[line 4]: Unrecognised string escape - \w
WARNING: EldritchTrenches-compile.map[line 4]: Unrecognised string escape - \h
WARNING: EldritchTrenches-compile.map[line 4]: Unrecognised string escape - \h
WARNING: EldritchTrenches-compile.map[line 4]: Unrecognised string escape - \i
WARNING: EldritchTrenches-compile.map[line 4]: Unrecognised string escape - \I
WARNING: EldritchTrenches-compile.map[line 4]: Unrecognised string escape - \R
WARNING: EldritchTrenches-compile.map[line 4]: Unrecognised string escape - \R
      301 entities
       29 unique textures
      702 texinfos
    1,842 unique planes

INFO: world extents calculated to 6024 units
      567 brushes
    3,426 sides
    1,318 side bevels

            0 texture frames added
WARNING: unable to find texture skip
Processing hull 0...
    534 SOLID brushes
      8 SKY brushes
    542 brushes total
    3,285 visible sides
INFO: calculating BSP for 542 brushes with 3285 sides
      542 brushes
    3,285 visible faces
    13,677 nodes
     7,483 expensive split nodes
     6,194 mid-split nodes
    13,678 leaves
     4,411 EMPTY leafs
       616 SKY leafs
     8,365 SOLID leafs
       286 SOLID | SKY leafs
    13,678 leafs total
    39 max tree height
    18 avg tree height
    46 tiny portals
    54,407 tree portals
    1,531 outside leaves
    0 detail filled leafs
      542 brushes
    1,645 visible faces
    1,640 non-visible faces
    5,860 nodes
    2,551 non-visible nodes
    5,860 expensive split nodes
    5,861 leaves
    1,708 EMPTY leafs
      259 SKY leafs
    3,748 SOLID leafs
      146 SOLID | SKY leafs
    5,861 leafs total
    30 max tree height
    16 avg tree height
    53 tiny portals
    25,704 tree portals
    683 outside leaves
    0 detail filled leafs
    53 tiny portals
    25,704 tree portals
    9,098 sides visible
    4,622 makefaces
    1,555 merged
    1,249 subdivided
    2,967 nodes pruned
    14 tiny portals
    1,284 player-occupiable leaves
    1,284 clusters of leaves
    3,934 vis portals
    1,520 SOLID leafs
      259 SKY leafs
       90 SOLID | SKY leafs
    1,025 EMPTY leafs
    2,894 leafs total
    27 max tree height
    15 avg tree height
     3,670 edges added by tjunctions
     4,095 faces optimized through MWT
    12,025 triangles computed from MWT
       931 faces created via optimization of MWT triangles
    11,283 edges
     5,180 faces
Processing hull 1...
Processing hull 2...
WARNING: worldspawn at 0 0 0 has long value for key wad (length 284 >= 127)
Writing EldritchTrenches.bsp as Quake BSP bsp29
Wrote EldritchTrenches.bsp

count   lump name    byte size 
      1 models               64
   1939 planes            38780
   6036 vertexes          72432
   2893 nodes             69432
    409 texinfos          16360
   5180 faces            103600
   6286 clipnodes         50288
   1285 leafs             35980
   6126 marksurfaces      12252
  11284 edges             45136
  22539 surfedges         90156
     29 textures         319480
        lightdata             0
        visdata               0
        entdata           16117

0.992s seconds elapsed


