---- qbsp / ericw-tools 2.0.0-alpha10-54-g07dbcb3b ----

--- Options Summary ---
    "nocolor" was set to "1" (from command line)

Input file: C:\Users\jettm\Documents\Columbia Classes\GAME 336 (Game Design II)\Quake Starter Kit\tools\ironwail\id1\maps\EldritchTrenches-compile.map
Output file: C:\Users\jettm\Documents\Columbia Classes\GAME 336 (Game Design II)\Quake Starter Kit\tools\ironwail\id1\maps\EldritchTrenches.bsp

INFO: using built-in palette.
WARNING: EldritchTrenches-compile.map[line 4]: Unrecognised string escape - \.
WARNING: EldritchTrenches-compile.map[line 4]: Unrecognised string escape - \.
WARNING: EldritchTrenches-compile.map[line 4]: Unrecognised string escape - \.
WARNING: EldritchTrenches-compile.map[line 4]: Unrecognised string escape - \e
WARNING: EldritchTrenches-compile.map[line 4]: Unrecognised string escape - \q
WARNING: EldritchTrenches-compile.map[line 4]: Unrecognised string escape - \p
WARNING: EldritchTrenches-compile.map[line 4]: Unrecognised string escape - \p
WARNING: EldritchTrenches-compile.map[line 4]: Unrecognised string escape - \.
WARNING: EldritchTrenches-compile.map[line 4]: Unrecognised string escape - \.
WARNING: EldritchTrenches-compile.map[line 4]: Unrecognised string escape - \.
WARNING: EldritchTrenches-compile.map[line 4]: Unrecognised string escape - \e
WARNING: EldritchTrenches-compile.map[line 4]: Unrecognised string escape - \q
WARNING: EldritchTrenches-compile.map[line 4]: Unrecognised string escape - \Q
WARNING: EldritchTrenches-compile.map[line 4]: Unrecognised string escape - \i
WARNING: EldritchTrenches-compile.map[line 4]: Unrecognised string escape - \m
WARNING: EldritchTrenches-compile.map[line 4]: Unrecognised string escape - \i
WARNING: EldritchTrenches-compile.map[line 4]: Unrecognised string escape - \w
WARNING: EldritchTrenches-compile.map[line 4]: Unrecognised string escape - \h
WARNING: EldritchTrenches-compile.map[line 4]: Unrecognised string escape - \h
WARNING: EldritchTrenches-compile.map[line 4]: Unrecognised string escape - \i
WARNING: EldritchTrenches-compile.map[line 4]: Unrecognised string escape - \I
WARNING: EldritchTrenches-compile.map[line 4]: Unrecognised string escape - \R
WARNING: EldritchTrenches-compile.map[line 4]: Unrecognised string escape - \R
      293 entities
       29 unique textures
      688 texinfos
    1,738 unique planes

INFO: world extents calculated to 6024 units
      529 brushes
    3,198 sides
    1,248 side bevels

            0 texture frames added
WARNING: unable to find texture skip
Processing hull 0...
    508 SOLID brushes
      8 SKY brushes
    516 brushes total
    3,128 visible sides
INFO: calculating BSP for 516 brushes with 3128 sides
      516 brushes
    3,128 visible faces
    15,106 nodes
     7,544 expensive split nodes
     7,562 mid-split nodes
    15,107 leaves
     4,797 EMPTY leafs
       655 SKY leafs
     9,345 SOLID leafs
       310 SOLID | SKY leafs
    15,107 leafs total
    39 max tree height
    18 avg tree height
    83 tiny portals
    58,812 tree portals
    1,629 outside leaves
    0 detail filled leafs
      516 brushes
    1,579 visible faces
    1,549 non-visible faces
    5,589 nodes
    2,474 non-visible nodes
    5,589 expensive split nodes
    5,590 leaves
    1,601 EMPTY leafs
      248 SKY leafs
    3,595 SOLID leafs
      146 SOLID | SKY leafs
    5,590 leafs total
    31 max tree height
    17 avg tree height
    52 tiny portals
    24,479 tree portals
    667 outside leaves
    0 detail filled leafs
    52 tiny portals
    24,479 tree portals
    8,634 sides visible
    4,392 makefaces
    1,523 merged
    1,216 subdivided
    2,917 nodes pruned
    9 tiny portals
    1,182 player-occupiable leaves
    1,182 clusters of leaves
    3,531 vis portals
    1,406 SOLID leafs
      248 SKY leafs
      934 EMPTY leafs
       85 SOLID | SKY leafs
    2,673 leafs total
    29 max tree height
    15 avg tree height
     3,551 edges added by tjunctions
     3,844 faces optimized through MWT
    11,413 triangles computed from MWT
       935 faces created via optimization of MWT triangles
    10,770 edges
     4,957 faces
Processing hull 1...
Processing hull 2...
WARNING: worldspawn at 0 0 0 has long value for key wad (length 284 >= 127)
Writing EldritchTrenches.bsp as Quake BSP bsp29
Wrote EldritchTrenches.bsp

count   lump name    byte size 
      1 models               64
   1927 planes            38540
   5735 vertexes          68820
   2672 nodes             64128
    401 texinfos          16040
   4957 faces             99140
   6931 clipnodes         55448
   1183 leafs             33124
   5817 marksurfaces      11634
  10771 edges             43084
  21505 surfedges         86020
     29 textures         319480
        lightdata             0
        visdata               0
        entdata           15834

0.896s seconds elapsed


