---- qbsp / ericw-tools 2.0.0-alpha10-54-g07dbcb3b ----

--- Options Summary ---
    "nocolor" was set to "1" (from command line)

Input file: C:\Users\jettm\Documents\Columbia Classes\GAME 336 (Game Design II)\Quake Starter Kit\tools\ironwail\id1\maps\EldritchTrenches-compile.map
Output file: C:\Users\jettm\Documents\Columbia Classes\GAME 336 (Game Design II)\Quake Starter Kit\tools\ironwail\id1\maps\EldritchTrenches.bsp

INFO: using built-in palette.
WARNING: EldritchTrenches-compile.map[line 4]: Unrecognised string escape - \.
WARNING: EldritchTrenches-compile.map[line 4]: Unrecognised string escape - \.
WARNING: EldritchTrenches-compile.map[line 4]: Unrecognised string escape - \.
WARNING: EldritchTrenches-compile.map[line 4]: Unrecognised string escape - \e
WARNING: EldritchTrenches-compile.map[line 4]: Unrecognised string escape - \q
WARNING: EldritchTrenches-compile.map[line 4]: Unrecognised string escape - \p
WARNING: EldritchTrenches-compile.map[line 4]: Unrecognised string escape - \p
WARNING: EldritchTrenches-compile.map[line 4]: Unrecognised string escape - \.
WARNING: EldritchTrenches-compile.map[line 4]: Unrecognised string escape - \.
WARNING: EldritchTrenches-compile.map[line 4]: Unrecognised string escape - \.
WARNING: EldritchTrenches-compile.map[line 4]: Unrecognised string escape - \e
WARNING: EldritchTrenches-compile.map[line 4]: Unrecognised string escape - \q
WARNING: EldritchTrenches-compile.map[line 4]: Unrecognised string escape - \Q
     2 entities
     2 unique textures
    31 texinfos
    24 unique planes

INFO: world extents calculated to 408 units
     6 brushes
    36 sides

            0 texture frames added
WARNING: unable to find texture skip
Processing hull 0...
    6 SOLID brushes
    6 brushes total
    36 visible sides
INFO: calculating BSP for 6 brushes with 36 sides
     6 brushes
    36 visible faces
    32 nodes
    32 expensive split nodes
    33 leaves
     7 EMPTY leafs
    26 SOLID leafs
    33 leafs total
    13 max tree height
    10 avg tree height
    138 tree portals
    6 outside leaves
    0 detail filled leafs
     6 brushes
     6 visible faces
    30 non-visible faces
    80 nodes
    54 non-visible nodes
    80 expensive split nodes
    81 leaves
    55 EMPTY leafs
    26 SOLID leafs
    81 leafs total
    10 max tree height
     7 avg tree height
    306 tree portals
    54 outside leaves
    0 detail filled leafs
    306 tree portals
    12 sides visible
    6 makefaces
    74 nodes pruned
    1 player-occupiable leaves
    1 clusters of leaves
    6 SOLID leafs
    1 EMPTY leafs
    7 leafs total
    7 max tree height
    4 avg tree height
     6 faces optimized through MWT
    12 triangles computed from MWT
    12 edges
     6 faces
Processing hull 1...
Processing hull 2...
WARNING: worldspawn at 0 0 0 has long value for key wad (length 129 >= 127)
Writing EldritchTrenches.bsp as Quake BSP bsp29
Wrote EldritchTrenches.bsp

count   lump name    byte size 
      1 models               64
     17 planes              340
      8 vertexes             96
      6 nodes               144
      6 texinfos            240
      6 faces               120
     12 clipnodes            96
      2 leafs                56
      6 marksurfaces         12
     13 edges                52
     24 surfedges            96
      2 textures           5492
        lightdata             0
        visdata               0
        entdata             241

0.010s seconds elapsed


