---- qbsp / ericw-tools 2.0.0-alpha10-54-g07dbcb3b ----

--- Options Summary ---
    "nocolor" was set to "1" (from command line)

Input file: C:\Users\jettm\Documents\Columbia Classes\GAME 336 (Game Design II)\Quake Starter Kit\tools\ironwail\id1\maps\EldritchTrenches-compile.map
Output file: C:\Users\jettm\Documents\Columbia Classes\GAME 336 (Game Design II)\Quake Starter Kit\tools\ironwail\id1\maps\EldritchTrenches.bsp

INFO: using built-in palette.
WARNING: EldritchTrenches-compile.map[line 4]: Unrecognised string escape - \.
WARNING: EldritchTrenches-compile.map[line 4]: Unrecognised string escape - \.
WARNING: EldritchTrenches-compile.map[line 4]: Unrecognised string escape - \.
WARNING: EldritchTrenches-compile.map[line 4]: Unrecognised string escape - \e
WARNING: EldritchTrenches-compile.map[line 4]: Unrecognised string escape - \q
WARNING: EldritchTrenches-compile.map[line 4]: Unrecognised string escape - \p
WARNING: EldritchTrenches-compile.map[line 4]: Unrecognised string escape - \p
WARNING: EldritchTrenches-compile.map[line 4]: Unrecognised string escape - \.
WARNING: EldritchTrenches-compile.map[line 4]: Unrecognised string escape - \.
WARNING: EldritchTrenches-compile.map[line 4]: Unrecognised string escape - \.
WARNING: EldritchTrenches-compile.map[line 4]: Unrecognised string escape - \e
WARNING: EldritchTrenches-compile.map[line 4]: Unrecognised string escape - \q
WARNING: EldritchTrenches-compile.map[line 4]: Unrecognised string escape - \Q
WARNING: EldritchTrenches-compile.map[line 4]: Unrecognised string escape - \i
WARNING: EldritchTrenches-compile.map[line 4]: Unrecognised string escape - \m
WARNING: EldritchTrenches-compile.map[line 4]: Unrecognised string escape - \i
WARNING: EldritchTrenches-compile.map[line 4]: Unrecognised string escape - \w
WARNING: EldritchTrenches-compile.map[line 4]: Unrecognised string escape - \h
WARNING: EldritchTrenches-compile.map[line 4]: Unrecognised string escape - \h
WARNING: EldritchTrenches-compile.map[line 4]: Unrecognised string escape - \i
WARNING: EldritchTrenches-compile.map[line 4]: Unrecognised string escape - \I
WARNING: EldritchTrenches-compile.map[line 4]: Unrecognised string escape - \R
WARNING: EldritchTrenches-compile.map[line 4]: Unrecognised string escape - \R
      293 entities
       29 unique textures
      686 texinfos
    1,750 unique planes

INFO: world extents calculated to 6024 units
      536 brushes
    3,240 sides
    1,236 side bevels

            0 texture frames added
WARNING: unable to find texture skip
Processing hull 0...
    511 SOLID brushes
      8 SKY brushes
    519 brushes total
    3,146 visible sides
INFO: calculating BSP for 519 brushes with 3146 sides
      519 brushes
    3,146 visible faces
    14,151 nodes
     7,596 expensive split nodes
     6,555 mid-split nodes
    14,152 leaves
     4,562 EMPTY leafs
       667 SKY leafs
     8,613 SOLID leafs
       310 SOLID | SKY leafs
    14,152 leafs total
    39 max tree height
    18 avg tree height
    56 tiny portals
    55,748 tree portals
    1,598 outside leaves
    0 detail filled leafs
      519 brushes
    1,593 visible faces
    1,553 non-visible faces
    5,623 nodes
    2,487 non-visible nodes
    5,623 expensive split nodes
    5,624 leaves
    1,613 EMPTY leafs
      252 SKY leafs
    3,612 SOLID leafs
      147 SOLID | SKY leafs
    5,624 leafs total
    28 max tree height
    16 avg tree height
    53 tiny portals
    24,655 tree portals
    667 outside leaves
    0 detail filled leafs
    53 tiny portals
    24,655 tree portals
    8,740 sides visible
    4,445 makefaces
    1,538 merged
    1,213 subdivided
    2,920 nodes pruned
    12 tiny portals
    1,198 player-occupiable leaves
    1,198 clusters of leaves
    3,586 vis portals
    1,420 SOLID leafs
      252 SKY leafs
      946 EMPTY leafs
       86 SOLID | SKY leafs
    2,704 leafs total
    26 max tree height
    15 avg tree height
     3,598 edges added by tjunctions
     3,875 faces optimized through MWT
    11,518 triangles computed from MWT
       934 faces created via optimization of MWT triangles
    10,861 edges
     4,991 faces
Processing hull 1...
Processing hull 2...
WARNING: worldspawn at 0 0 0 has long value for key wad (length 284 >= 127)
Writing EldritchTrenches.bsp as Quake BSP bsp29
Wrote EldritchTrenches.bsp

count   lump name    byte size 
      1 models               64
   1909 planes            38180
   5790 vertexes          69480
   2703 nodes             64872
    401 texinfos          16040
   4991 faces             99820
   6509 clipnodes         52072
   1199 leafs             33572
   5845 marksurfaces      11690
  10862 edges             43448
  21682 surfedges         86728
     29 textures         319480
        lightdata             0
        visdata               0
        entdata           15834

0.817s seconds elapsed


