---- qbsp / ericw-tools 2.0.0-alpha10-54-g07dbcb3b ----

--- Options Summary ---
    "nocolor" was set to "1" (from command line)

Input file: C:\Users\jettm\Documents\Columbia Classes\GAME 336 (Game Design II)\Quake Starter Kit\tools\ironwail\id1\maps\EldritchTrenches-compile.map
Output file: C:\Users\jettm\Documents\Columbia Classes\GAME 336 (Game Design II)\Quake Starter Kit\tools\ironwail\id1\maps\EldritchTrenches.bsp

INFO: using built-in palette.
WARNING: EldritchTrenches-compile.map[line 4]: Unrecognised string escape - \.
WARNING: EldritchTrenches-compile.map[line 4]: Unrecognised string escape - \.
WARNING: EldritchTrenches-compile.map[line 4]: Unrecognised string escape - \.
WARNING: EldritchTrenches-compile.map[line 4]: Unrecognised string escape - \e
WARNING: EldritchTrenches-compile.map[line 4]: Unrecognised string escape - \q
WARNING: EldritchTrenches-compile.map[line 4]: Unrecognised string escape - \p
WARNING: EldritchTrenches-compile.map[line 4]: Unrecognised string escape - \p
WARNING: EldritchTrenches-compile.map[line 4]: Unrecognised string escape - \.
WARNING: EldritchTrenches-compile.map[line 4]: Unrecognised string escape - \.
WARNING: EldritchTrenches-compile.map[line 4]: Unrecognised string escape - \.
WARNING: EldritchTrenches-compile.map[line 4]: Unrecognised string escape - \e
WARNING: EldritchTrenches-compile.map[line 4]: Unrecognised string escape - \q
WARNING: EldritchTrenches-compile.map[line 4]: Unrecognised string escape - \Q
WARNING: EldritchTrenches-compile.map[line 4]: Unrecognised string escape - \i
WARNING: EldritchTrenches-compile.map[line 4]: Unrecognised string escape - \m
WARNING: EldritchTrenches-compile.map[line 4]: Unrecognised string escape - \i
WARNING: EldritchTrenches-compile.map[line 4]: Unrecognised string escape - \w
WARNING: EldritchTrenches-compile.map[line 4]: Unrecognised string escape - \h
WARNING: EldritchTrenches-compile.map[line 4]: Unrecognised string escape - \h
WARNING: EldritchTrenches-compile.map[line 4]: Unrecognised string escape - \i
WARNING: EldritchTrenches-compile.map[line 4]: Unrecognised string escape - \I
WARNING: EldritchTrenches-compile.map[line 4]: Unrecognised string escape - \R
WARNING: EldritchTrenches-compile.map[line 4]: Unrecognised string escape - \R
      293 entities
       29 unique textures
      689 texinfos
    1,740 unique planes

INFO: world extents calculated to 6024 units
      530 brushes
    3,205 sides
    1,244 side bevels

            0 texture frames added
WARNING: unable to find texture skip
Processing hull 0...
    508 SOLID brushes
      8 SKY brushes
    516 brushes total
    3,128 visible sides
INFO: calculating BSP for 516 brushes with 3128 sides
      516 brushes
    3,128 visible faces
    15,112 nodes
     7,544 expensive split nodes
     7,568 mid-split nodes
    15,113 leaves
     4,797 EMPTY leafs
       655 SKY leafs
     9,351 SOLID leafs
       310 SOLID | SKY leafs
    15,113 leafs total
    39 max tree height
    18 avg tree height
    83 tiny portals
    58,832 tree portals
    1,629 outside leaves
    0 detail filled leafs
      516 brushes
    1,579 visible faces
    1,549 non-visible faces
    5,594 nodes
    2,474 non-visible nodes
    5,594 expensive split nodes
    5,595 leaves
    1,602 EMPTY leafs
      248 SKY leafs
    3,599 SOLID leafs
      146 SOLID | SKY leafs
    5,595 leafs total
    31 max tree height
    17 avg tree height
    52 tiny portals
    24,501 tree portals
    667 outside leaves
    0 detail filled leafs
    52 tiny portals
    24,501 tree portals
    8,640 sides visible
    4,395 makefaces
    1,525 merged
    1,217 subdivided
    2,920 nodes pruned
    9 tiny portals
    1,183 player-occupiable leaves
    1,183 clusters of leaves
    3,535 vis portals
    1,407 SOLID leafs
      248 SKY leafs
      935 EMPTY leafs
       85 SOLID | SKY leafs
    2,675 leafs total
    29 max tree height
    15 avg tree height
     3,553 edges added by tjunctions
     3,847 faces optimized through MWT
    11,420 triangles computed from MWT
       936 faces created via optimization of MWT triangles
    10,776 edges
     4,960 faces
Processing hull 1...
Processing hull 2...
WARNING: worldspawn at 0 0 0 has long value for key wad (length 284 >= 127)
Writing EldritchTrenches.bsp as Quake BSP bsp29
Wrote EldritchTrenches.bsp

count   lump name    byte size 
      1 models               64
   1927 planes            38540
   5738 vertexes          68856
   2674 nodes             64176
    401 texinfos          16040
   4960 faces             99200
   6823 clipnodes         54584
   1184 leafs             33152
   5821 marksurfaces      11642
  10777 edges             43108
  21517 surfedges         86068
     29 textures         319480
        lightdata             0
        visdata               0
        entdata           15834

0.921s seconds elapsed


