---- qbsp / ericw-tools 2.0.0-alpha10-54-g07dbcb3b ----

--- Options Summary ---
    "nocolor" was set to "1" (from command line)

Input file: C:\Users\jettm\Documents\Columbia Classes\GAME 336 (Game Design II)\Quake Starter Kit\tools\ironwail\id1\maps\EldritchTrenches-compile.map
Output file: C:\Users\jettm\Documents\Columbia Classes\GAME 336 (Game Design II)\Quake Starter Kit\tools\ironwail\id1\maps\EldritchTrenches.bsp

INFO: using built-in palette.
WARNING: EldritchTrenches-compile.map[line 4]: Unrecognised string escape - \.
WARNING: EldritchTrenches-compile.map[line 4]: Unrecognised string escape - \.
WARNING: EldritchTrenches-compile.map[line 4]: Unrecognised string escape - \.
WARNING: EldritchTrenches-compile.map[line 4]: Unrecognised string escape - \e
WARNING: EldritchTrenches-compile.map[line 4]: Unrecognised string escape - \q
WARNING: EldritchTrenches-compile.map[line 4]: Unrecognised string escape - \p
WARNING: EldritchTrenches-compile.map[line 4]: Unrecognised string escape - \p
WARNING: EldritchTrenches-compile.map[line 4]: Unrecognised string escape - \.
WARNING: EldritchTrenches-compile.map[line 4]: Unrecognised string escape - \.
WARNING: EldritchTrenches-compile.map[line 4]: Unrecognised string escape - \.
WARNING: EldritchTrenches-compile.map[line 4]: Unrecognised string escape - \e
WARNING: EldritchTrenches-compile.map[line 4]: Unrecognised string escape - \q
WARNING: EldritchTrenches-compile.map[line 4]: Unrecognised string escape - \Q
WARNING: EldritchTrenches-compile.map[line 4]: Unrecognised string escape - \i
WARNING: EldritchTrenches-compile.map[line 4]: Unrecognised string escape - \m
WARNING: EldritchTrenches-compile.map[line 4]: Unrecognised string escape - \i
WARNING: EldritchTrenches-compile.map[line 4]: Unrecognised string escape - \w
WARNING: EldritchTrenches-compile.map[line 4]: Unrecognised string escape - \h
WARNING: EldritchTrenches-compile.map[line 4]: Unrecognised string escape - \h
WARNING: EldritchTrenches-compile.map[line 4]: Unrecognised string escape - \i
WARNING: EldritchTrenches-compile.map[line 4]: Unrecognised string escape - \I
WARNING: EldritchTrenches-compile.map[line 4]: Unrecognised string escape - \R
WARNING: EldritchTrenches-compile.map[line 4]: Unrecognised string escape - \R
      257 entities
       24 unique textures
      473 texinfos
    1,636 unique planes

INFO: world extents calculated to 6024 units
      501 brushes
    3,013 sides
    1,140 side bevels

            0 texture frames added
WARNING: unable to find texture skip
Processing hull 0...
    482 SOLID brushes
      8 SKY brushes
    490 brushes total
    2,955 visible sides
INFO: calculating BSP for 490 brushes with 2955 sides
      490 brushes
    2,955 visible faces
    14,637 nodes
     7,397 expensive split nodes
     7,240 mid-split nodes
    14,638 leaves
     4,667 EMPTY leafs
       644 SKY leafs
     9,024 SOLID leafs
       303 SOLID | SKY leafs
    14,638 leafs total
    38 max tree height
    18 avg tree height
    79 tiny portals
    56,933 tree portals
    1,603 outside leaves
    0 detail filled leafs
      490 brushes
    1,480 visible faces
    1,475 non-visible faces
    5,346 nodes
    2,404 non-visible nodes
    5,346 expensive split nodes
    5,347 leaves
    1,541 EMPTY leafs
      251 SKY leafs
    3,405 SOLID leafs
      150 SOLID | SKY leafs
    5,347 leafs total
    29 max tree height
    17 avg tree height
    50 tiny portals
    23,330 tree portals
    650 outside leaves
    0 detail filled leafs
    50 tiny portals
    23,330 tree portals
    8,144 sides visible
    4,139 makefaces
    1,422 merged
    1,295 subdivided
    2,790 nodes pruned
    8 tiny portals
    1,142 player-occupiable leaves
    1,142 clusters of leaves
    3,433 vis portals
    1,328 SOLID leafs
      251 SKY leafs
      891 EMPTY leafs
       87 SOLID | SKY leafs
    2,557 leafs total
    27 max tree height
    15 avg tree height
     3,579 edges added by tjunctions
     3,780 faces optimized through MWT
    11,277 triangles computed from MWT
       939 faces created via optimization of MWT triangles
    10,633 edges
     4,891 faces
Processing hull 1...
Processing hull 2...
WARNING: worldspawn at 0 0 0 has long value for key wad (length 284 >= 127)
Writing EldritchTrenches.bsp as Quake BSP bsp29
Wrote EldritchTrenches.bsp

count   lump name    byte size 
      1 models               64
   1731 planes            34620
   5660 vertexes          67920
   2556 nodes             61344
    288 texinfos          11520
   4891 faces             97820
   6729 clipnodes         53832
   1143 leafs             32004
   5679 marksurfaces      11358
  10634 edges             42536
  21231 surfedges         84924
     24 textures         286620
        lightdata             0
        visdata               0
        entdata           13938

0.828s seconds elapsed


