---- qbsp / ericw-tools 2.0.0-alpha10-54-g07dbcb3b ----

--- Options Summary ---
    "nocolor" was set to "1" (from command line)

Input file: C:\Users\jettm\Documents\Columbia Classes\GAME 336 (Game Design II)\Quake Starter Kit\tools\ironwail\id1\maps\EldritchTrenches-compile.map
Output file: C:\Users\jettm\Documents\Columbia Classes\GAME 336 (Game Design II)\Quake Starter Kit\tools\ironwail\id1\maps\EldritchTrenches.bsp

INFO: using built-in palette.
WARNING: EldritchTrenches-compile.map[line 4]: Unrecognised string escape - \.
WARNING: EldritchTrenches-compile.map[line 4]: Unrecognised string escape - \.
WARNING: EldritchTrenches-compile.map[line 4]: Unrecognised string escape - \.
WARNING: EldritchTrenches-compile.map[line 4]: Unrecognised string escape - \e
WARNING: EldritchTrenches-compile.map[line 4]: Unrecognised string escape - \q
WARNING: EldritchTrenches-compile.map[line 4]: Unrecognised string escape - \p
WARNING: EldritchTrenches-compile.map[line 4]: Unrecognised string escape - \p
WARNING: EldritchTrenches-compile.map[line 4]: Unrecognised string escape - \.
WARNING: EldritchTrenches-compile.map[line 4]: Unrecognised string escape - \.
WARNING: EldritchTrenches-compile.map[line 4]: Unrecognised string escape - \.
WARNING: EldritchTrenches-compile.map[line 4]: Unrecognised string escape - \e
WARNING: EldritchTrenches-compile.map[line 4]: Unrecognised string escape - \q
WARNING: EldritchTrenches-compile.map[line 4]: Unrecognised string escape - \Q
WARNING: EldritchTrenches-compile.map[line 4]: Unrecognised string escape - \i
WARNING: EldritchTrenches-compile.map[line 4]: Unrecognised string escape - \m
WARNING: EldritchTrenches-compile.map[line 4]: Unrecognised string escape - \i
WARNING: EldritchTrenches-compile.map[line 4]: Unrecognised string escape - \w
WARNING: EldritchTrenches-compile.map[line 4]: Unrecognised string escape - \h
WARNING: EldritchTrenches-compile.map[line 4]: Unrecognised string escape - \h
WARNING: EldritchTrenches-compile.map[line 4]: Unrecognised string escape - \i
WARNING: EldritchTrenches-compile.map[line 4]: Unrecognised string escape - \I
WARNING: EldritchTrenches-compile.map[line 4]: Unrecognised string escape - \R
WARNING: EldritchTrenches-compile.map[line 4]: Unrecognised string escape - \R
      332 entities
       35 unique textures
      738 texinfos
    1,892 unique planes

INFO: world extents calculated to 6024 units
      587 brushes
    3,594 sides
    1,276 side bevels

            0 texture frames added
WARNING: unable to find texture skip
Processing hull 0...
    543 SOLID brushes
      8 SKY brushes
    551 brushes total
    3,387 visible sides
INFO: calculating BSP for 551 brushes with 3387 sides
      551 brushes
    3,387 visible faces
    14,282 nodes
     7,623 expensive split nodes
     6,659 mid-split nodes
    14,283 leaves
     4,639 EMPTY leafs
       614 SKY leafs
     8,749 SOLID leafs
       281 SOLID | SKY leafs
    14,283 leafs total
    39 max tree height
    18 avg tree height
    46 tiny portals
    56,842 tree portals
    1,557 outside leaves
    0 detail filled leafs
      551 brushes
    1,735 visible faces
    1,652 non-visible faces
    5,901 nodes
    2,459 non-visible nodes
    5,901 expensive split nodes
    5,902 leaves
    1,766 EMPTY leafs
      289 SKY leafs
    3,701 SOLID leafs
      146 SOLID | SKY leafs
    5,902 leafs total
    31 max tree height
    17 avg tree height
    53 tiny portals
    25,805 tree portals
    700 outside leaves
    0 detail filled leafs
    53 tiny portals
    25,805 tree portals
    9,046 sides visible
    4,609 makefaces
    1,333 merged
    1,235 subdivided
    2,860 nodes pruned
    14 tiny portals
    1,355 player-occupiable leaves
    1,355 clusters of leaves
    4,074 vis portals
    1,594 SOLID leafs
      289 SKY leafs
       93 SOLID | SKY leafs
    1,066 EMPTY leafs
    3,042 leafs total
    31 max tree height
    16 avg tree height
     3,928 edges added by tjunctions
     4,275 faces optimized through MWT
    12,636 triangles computed from MWT
     1,042 faces created via optimization of MWT triangles
    11,884 edges
     5,475 faces
Processing hull 1...
Processing hull 2...
WARNING: worldspawn at 0 0 0 has long value for key wad (length 284 >= 127)
Writing EldritchTrenches.bsp as Quake BSP bsp29
Wrote EldritchTrenches.bsp

count   lump name    byte size 
      1 models               64
   1957 planes            39140
   6339 vertexes          76068
   3041 nodes             72984
    436 texinfos          17440
   5475 faces            109500
   6562 clipnodes         52496
   1356 leafs             37968
   6223 marksurfaces      12446
  11885 edges             47540
  23744 surfedges         94976
     35 textures         385024
        lightdata             0
        visdata               0
        entdata           17922

0.976s seconds elapsed


